/*--------------------------------*- C++ -*----------------------------------*\
| =========                 |                                                 |
| \\      /  F ield         | OpenFOAM: The Open Source CFD Toolbox           |
|  \\    /   O peration     | Version:  2.2.2                                 |
|   \\  /    A nd           | Web:      www.OpenFOAM.org                      |
|    \\/     M anipulation  |                                                 |
\*---------------------------------------------------------------------------*/
FoamFile
{
    version	2.0;
    format	ascii;
    class	dictionary;
    object	blockMeshDict;
}
// * * * * * * * * * * * * * * * * * * * * * * * * * * * * * * * * * * * *//
convertToMeters 0.0254;

vertices
(
// back
        (0 0      -0.003937)              //0
        (2 0      -0.003937)              //1
        (4 0      -0.003937)              //2

        (4 0.0225 -0.003937)              //3
        (2 0.0225 -0.003937)              //4
        (0 0.0225 -0.003937)              //5

        (0      0.24477 -0.003937)        //6
        (1.7869 0.3     -0.003937)        //7
        (2      0.3     -0.003937)        //8
        (4      0.3     -0.003937)        //9

        (4      0.5     -0.003937)        //10
        (2      0.5     -0.003937)        //11
        (1.7869 0.5     -0.003937)        //12
        (0      0.5     -0.003937)        //13

// front
        (0 0      0.003937)              //14
        (2 0      0.003937)              //15
        (4 0      0.003937)              //16

        (4 0.0225 0.003937)              //17
        (2 0.0225 0.003937)              //18
        (0 0.0225 0.003937)              //19

        (0      0.24477 0.003937)        //20
        (1.7869 0.3     0.003937)        //21
        (2      0.3     0.003937)        //22
        (4      0.3     0.003937)        //23

        (4      0.5     0.003937)        //24
        (2      0.5     0.003937)        //25
        (1.7869 0.5     0.003937)        //26
        (0      0.5     0.003937)        //27
);
//
//     6/14------------7/15---------------------------22/23    
//     |      (1)       |             (4)               |       
//     4/12------------5/13---------------------------20/21      
//     |                |             (3)               |
//     3/11------------2/10---------------------------18/19
//     |      (0)       |             (2)               |
//     0/8-------------1/9----------------------------16/17
//
blocks
(
    hex (0 1 4 5 14 15 18 19) (50 5 1) simpleGrading (1 1 1)          //(0)
    hex (1 2 3 4 15 16 17 18) (50 5 1) simpleGrading (1 1 1)         //(1)

    hex (4 3 9 8 18 17 23 22) (50 20 1) simpleGrading (1 5 1)         //(2)
    hex (7 4 8 7 21 18 22 21) (5 20 1) simpleGrading (1 5 1)         //(3)
//
    hex (8 9 10 11 22 23 24 25) (50 12 1) simpleGrading (1 1 1)      //(4)
//
    hex (7 8 11 12 21 22 25 26) (5 12 1) simpleGrading (1 1 1)    //(5)
    hex (6 7 12 13 20 21 26 27) (50 12 1) simpleGrading (1 1 1)    //(6)
);

edges
(
    arc 4 7 (1.872 0.1449 -0.003937)
    arc 18 21 (1.872 0.1449 0.003937)
);

boundary
(
    inletGas
    {
    	type patch;
        faces
        (
            (13 6 20 27)
        );
    }

    inletFeed
    {
    	type patch;
    	faces
        (
            (5 0 14 19)
        );
    }

    outlet
    {
    	type patch;
    	faces
        (
            (2 3 17 16)
            (3 9 23 17)
            (9 10 24 23)
        );
    }

    leftWall
    {
    	type wall;
    	faces
        (
            (0 1 15 14)
            (1 2 16 15)
        );
    }

    nozzleWall_Tip
    {
    	type wall;
    	faces
        (
            (4 18 21 7)
        );
    }

    nozzleWall_Feed
    {
    	type wall;
    	faces
        (
            (5 4 18 19)
//            (4 3 17 18)
        );
    }

    nozzleWall_Gas
    {
    	type wall;
    	faces
        (
//            (4 7 21 18)
            (7 6 20 21)
        );
    }

    middlePlane
    {
    	type symmetryPlane;
    	faces
        (
            (10 11 25 24)
            (11 12 26 25)
            (12 13 27 26)
        );
    }

    );

mergePatchPairs
(
);
//***********************************************************************//


